# generated using pymatgen
data_Cr(SO4)2
_symmetry_space_group_name_H-M   'P 1'
_cell_length_a   8.78993332
_cell_length_b   9.00953949
_cell_length_c   12.71629812
_cell_angle_alpha   90.00000000
_cell_angle_beta   90.00000000
_cell_angle_gamma   90.00000000
_symmetry_Int_Tables_number   1
_chemical_formula_structural   Cr(SO4)2
_chemical_formula_sum   'Cr8 S16 O64'
_cell_volume   1007.04499340
_cell_formula_units_Z   8
loop_
 _symmetry_equiv_pos_site_id
 _symmetry_equiv_pos_as_xyz
  1  'x, y, z'
loop_
 _atom_site_type_symbol
 _atom_site_label
 _atom_site_symmetry_multiplicity
 _atom_site_fract_x
 _atom_site_fract_y
 _atom_site_fract_z
 _atom_site_occupancy
  Cr  Cr0  1  0.89247033  0.85821928  0.12547595  1
  Cr  Cr1  1  0.60752967  0.85821928  0.62547595  1
  Cr  Cr2  1  0.39247033  0.64178072  0.12547595  1
  Cr  Cr3  1  0.10752967  0.64178072  0.62547595  1
  Cr  Cr4  1  0.89247033  0.35821928  0.37452405  1
  Cr  Cr5  1  0.60752967  0.35821928  0.87452405  1
  Cr  Cr6  1  0.39247033  0.14178072  0.37452405  1
  Cr  Cr7  1  0.10752967  0.14178072  0.87452405  1
  S  S8  1  0.93560713  0.92286613  0.71806090  1
  S  S9  1  0.56439287  0.92286613  0.21806090  1
  S  S10  1  0.31231670  0.84505739  0.48456184  1
  S  S11  1  0.18768330  0.84505739  0.98456184  1
  S  S12  1  0.81231670  0.65494261  0.48456184  1
  S  S13  1  0.68768330  0.65494261  0.98456184  1
  S  S14  1  0.06439287  0.57713387  0.21806090  1
  S  S15  1  0.43560713  0.57713387  0.71806090  1
  S  S16  1  0.56439287  0.42286613  0.28193910  1
  S  S17  1  0.93560713  0.42286613  0.78193910  1
  S  S18  1  0.31231670  0.34505739  0.01543816  1
  S  S19  1  0.18768330  0.34505739  0.51543816  1
  S  S20  1  0.81231670  0.15494261  0.01543816  1
  S  S21  1  0.68768330  0.15494261  0.51543816  1
  S  S22  1  0.43560713  0.07713387  0.78193910  1
  S  S23  1  0.06439287  0.07713387  0.28193910  1
  O  O24  1  0.29911451  0.01080315  0.47384453  1
  O  O25  1  0.20088549  0.01080315  0.97384453  1
  O  O26  1  0.01393570  0.99155813  0.36842789  1
  O  O27  1  0.48606430  0.99155813  0.86842789  1
  O  O28  1  0.52278693  0.97968107  0.32340117  1
  O  O29  1  0.97721307  0.97968107  0.82340117  1
  O  O30  1  0.76404380  0.91114634  0.72142811  1
  O  O31  1  0.73595620  0.91114634  0.22142811  1
  O  O32  1  0.27601706  0.81071376  0.08145374  1
  O  O33  1  0.22398294  0.81071376  0.58145374  1
  O  O34  1  0.02551105  0.81099064  0.01327038  1
  O  O35  1  0.47448895  0.81099064  0.51327038  1
  O  O36  1  0.99453349  0.76520424  0.71709645  1
  O  O37  1  0.50546651  0.76520424  0.21709645  1
  O  O38  1  0.26903091  0.76752618  0.39309222  1
  O  O39  1  0.23096909  0.76752618  0.89309222  1
  O  O40  1  0.76903091  0.73247382  0.39309222  1
  O  O41  1  0.73096909  0.73247382  0.89309222  1
  O  O42  1  0.00546651  0.73479576  0.21709645  1
  O  O43  1  0.49453349  0.73479576  0.71709645  1
  O  O44  1  0.97448895  0.68900936  0.51327038  1
  O  O45  1  0.52551105  0.68900936  0.01327038  1
  O  O46  1  0.77601706  0.68928624  0.08145374  1
  O  O47  1  0.72398294  0.68928624  0.58145374  1
  O  O48  1  0.23595620  0.58885366  0.22142811  1
  O  O49  1  0.26404380  0.58885366  0.72142811  1
  O  O50  1  0.47721307  0.52031893  0.82340117  1
  O  O51  1  0.02278693  0.52031893  0.32340117  1
  O  O52  1  0.51393570  0.50844187  0.36842789  1
  O  O53  1  0.98606430  0.50844187  0.86842789  1
  O  O54  1  0.79911451  0.48919685  0.47384453  1
  O  O55  1  0.70088549  0.48919685  0.97384453  1
  O  O56  1  0.29911451  0.51080315  0.02615547  1
  O  O57  1  0.20088549  0.51080315  0.52615547  1
  O  O58  1  0.48606430  0.49155813  0.63157211  1
  O  O59  1  0.01393570  0.49155813  0.13157211  1
  O  O60  1  0.52278693  0.47968107  0.17659883  1
  O  O61  1  0.97721307  0.47968107  0.67659883  1
  O  O62  1  0.73595620  0.41114634  0.27857189  1
  O  O63  1  0.76404380  0.41114634  0.77857189  1
  O  O64  1  0.27601706  0.31071376  0.41854626  1
  O  O65  1  0.22398294  0.31071376  0.91854626  1
  O  O66  1  0.47448895  0.31099064  0.98672962  1
  O  O67  1  0.02551105  0.31099064  0.48672962  1
  O  O68  1  0.50546651  0.26520424  0.28290355  1
  O  O69  1  0.99453349  0.26520424  0.78290355  1
  O  O70  1  0.26903091  0.26752618  0.10690778  1
  O  O71  1  0.23096909  0.26752618  0.60690778  1
  O  O72  1  0.76903091  0.23247382  0.10690778  1
  O  O73  1  0.73096909  0.23247382  0.60690778  1
  O  O74  1  0.49453349  0.23479576  0.78290355  1
  O  O75  1  0.00546651  0.23479576  0.28290355  1
  O  O76  1  0.52551105  0.18900936  0.48672962  1
  O  O77  1  0.97448895  0.18900936  0.98672962  1
  O  O78  1  0.77601706  0.18928624  0.41854626  1
  O  O79  1  0.72398294  0.18928624  0.91854626  1
  O  O80  1  0.26404380  0.08885366  0.77857189  1
  O  O81  1  0.23595620  0.08885366  0.27857189  1
  O  O82  1  0.47721307  0.02031893  0.67659883  1
  O  O83  1  0.02278693  0.02031893  0.17659883  1
  O  O84  1  0.98606430  0.00844187  0.63157211  1
  O  O85  1  0.51393570  0.00844187  0.13157211  1
  O  O86  1  0.79911451  0.98919685  0.02615547  1
  O  O87  1  0.70088549  0.98919685  0.52615547  1
