# generated using pymatgen
data_MgMn4Zn2O8
_symmetry_space_group_name_H-M   'P 1'
_cell_length_a   6.24198255
_cell_length_b   6.24198551
_cell_length_c   6.06601599
_cell_angle_alpha   60.98667799
_cell_angle_beta   60.98672433
_cell_angle_gamma   63.97890565
_symmetry_Int_Tables_number   1
_chemical_formula_structural   MgMn4Zn2O8
_chemical_formula_sum   'Mg1 Mn4 Zn2 O8'
_cell_volume   174.23456455
_cell_formula_units_Z   1
loop_
 _symmetry_equiv_pos_site_id
 _symmetry_equiv_pos_as_xyz
  1  'x, y, z'
loop_
 _atom_site_type_symbol
 _atom_site_label
 _atom_site_symmetry_multiplicity
 _atom_site_fract_x
 _atom_site_fract_y
 _atom_site_fract_z
 _atom_site_occupancy
  Mg  Mg0  1  0.81578695  0.81578695  0.18420483  1
  Mn  Mn1  1  0.12916910  0.12916910  0.87009201  1
  Mn  Mn2  1  0.18608723  0.18608723  0.31348310  1
  Mn  Mn3  1  0.56711577  0.56711577  0.17318857  1
  Mn  Mn4  1  0.56773018  0.56773018  0.69169817  1
  Zn  Zn5  1  0.09488954  0.65458960  0.62558561  1
  Zn  Zn6  1  0.65458960  0.09488954  0.62558561  1
  O  O7  1  0.33018962  0.33018962  0.44877048  1
  O  O8  1  0.43726169  0.80891498  0.37693844  1
  O  O9  1  0.33034720  0.33034620  0.89017026  1
  O  O10  1  0.80891598  0.43725969  0.37693844  1
  O  O11  1  0.42796216  0.80898224  0.88156485  1
  O  O12  1  0.80898024  0.42796316  0.88156484  1
  O  O13  1  0.93393237  0.93393337  0.33466567  1
  O  O14  1  0.93482038  0.93482038  0.79777113  1
