# generated using pymatgen
data_MgMn4Zn2O8
_symmetry_space_group_name_H-M   'P 1'
_cell_length_a   6.25788954
_cell_length_b   6.25788714
_cell_length_c   6.54901451
_cell_angle_alpha   58.44901027
_cell_angle_beta   58.44894365
_cell_angle_gamma   58.64563703
_symmetry_Int_Tables_number   1
_chemical_formula_structural   MgMn4Zn2O8
_chemical_formula_sum   'Mg1 Mn4 Zn2 O8'
_cell_volume   175.18613717
_cell_formula_units_Z   1
loop_
 _symmetry_equiv_pos_site_id
 _symmetry_equiv_pos_as_xyz
  1  'x, y, z'
loop_
 _atom_site_type_symbol
 _atom_site_label
 _atom_site_symmetry_multiplicity
 _atom_site_fract_x
 _atom_site_fract_y
 _atom_site_fract_z
 _atom_site_occupancy
  Mg  Mg0  1  0.01492191  0.01491935  0.48507807  1
  Mn  Mn1  1  0.93456096  0.93455959  0.06543930  1
  Mn  Mn2  1  0.32678983  0.32679592  0.17321548  1
  Mn  Mn3  1  0.61247880  0.61247884  0.15162954  1
  Mn  Mn4  1  0.61247459  0.61248063  0.62340464  1
  Zn  Zn5  1  0.08025401  0.51146551  0.70414126  1
  Zn  Zn6  1  0.51146703  0.08025341  0.70414062  1
  O  O7  1  0.39013259  0.39013316  0.40666861  1
  O  O8  1  0.40671126  0.89098550  0.35114995  1
  O  O9  1  0.39013370  0.39013186  0.81305490  1
  O  O10  1  0.89098699  0.40670946  0.35114948  1
  O  O11  1  0.35106365  0.80128028  0.92383827  1
  O  O12  1  0.80128046  0.35106337  0.92383834  1
  O  O13  1  0.83836907  0.83836921  0.45739684  1
  O  O14  1  0.83837515  0.83837393  0.86585471  1
