# generated using pymatgen
data_Mg6MnBi
_symmetry_space_group_name_H-M   'P 1'
_cell_length_a   5.16824200
_cell_length_b   6.34973000
_cell_length_c   11.00795600
_cell_angle_alpha   90.00000000
_cell_angle_beta   90.00000000
_cell_angle_gamma   90.00000000
_symmetry_Int_Tables_number   1
_chemical_formula_structural   Mg6MnBi
_chemical_formula_sum   'Mg12 Mn2 Bi2'
_cell_volume   361.24744561
_cell_formula_units_Z   2
loop_
 _symmetry_equiv_pos_site_id
 _symmetry_equiv_pos_as_xyz
  1  'x, y, z'
loop_
 _atom_site_type_symbol
 _atom_site_label
 _atom_site_symmetry_multiplicity
 _atom_site_fract_x
 _atom_site_fract_y
 _atom_site_fract_z
 _atom_site_occupancy
  Mg  Mg0  1  0.50000000  0.24843300  0.41631500  1
  Mg  Mg1  1  0.50000000  0.75156700  0.41631500  1
  Mg  Mg2  1  0.00000000  0.76443300  0.08245500  1
  Mg  Mg3  1  0.00000000  0.23556700  0.08245500  1
  Mg  Mg4  1  0.00000000  0.00000000  0.32897400  1
  Mg  Mg5  1  0.00000000  0.50000000  0.33881200  1
  Mg  Mg6  1  0.50000000  0.74843300  0.91631500  1
  Mg  Mg7  1  0.50000000  0.25156700  0.91631500  1
  Mg  Mg8  1  0.00000000  0.26443300  0.58245500  1
  Mg  Mg9  1  0.00000000  0.73556700  0.58245500  1
  Mg  Mg10  1  0.00000000  0.50000000  0.82897400  1
  Mg  Mg11  1  0.00000000  0.00000000  0.83881200  1
  Mn  Mn12  1  0.50000000  0.00000000  0.16687100  1
  Mn  Mn13  1  0.50000000  0.50000000  0.66687100  1
  Bi  Bi14  1  0.50000000  0.50000000  0.16780100  1
  Bi  Bi15  1  0.50000000  0.00000000  0.66780100  1
