# generated using pymatgen
data_Ce3CCl5
_symmetry_space_group_name_H-M   'P 1'
_cell_length_a   8.24559266
_cell_length_b   8.24623153
_cell_length_c   15.85848000
_cell_angle_alpha   83.62282091
_cell_angle_beta   83.59984562
_cell_angle_gamma   63.78814334
_symmetry_Int_Tables_number   1
_chemical_formula_structural   Ce3CCl5
_chemical_formula_sum   'Ce12 C4 Cl20'
_cell_volume   959.06932263
_cell_formula_units_Z   4
loop_
 _symmetry_equiv_pos_site_id
 _symmetry_equiv_pos_as_xyz
  1  'x, y, z'
loop_
 _atom_site_type_symbol
 _atom_site_label
 _atom_site_symmetry_multiplicity
 _atom_site_fract_x
 _atom_site_fract_y
 _atom_site_fract_z
 _atom_site_occupancy
  Ce  Ce0  1  0.99802122  0.28596676  0.04624084  1
  Ce  Ce1  1  0.00197878  0.71403324  0.95375916  1
  Ce  Ce2  1  0.90925544  0.65542978  0.20237064  1
  Ce  Ce3  1  0.54056527  0.71488332  0.06241685  1
  Ce  Ce4  1  0.28632254  0.99811036  0.54617210  1
  Ce  Ce5  1  0.09074456  0.34457022  0.79762936  1
  Ce  Ce6  1  0.45943473  0.28511668  0.93758315  1
  Ce  Ce7  1  0.71367746  0.00188964  0.45382790  1
  Ce  Ce8  1  0.28527195  0.45957034  0.43757449  1
  Ce  Ce9  1  0.34451692  0.09058918  0.29751812  1
  Ce  Ce10  1  0.71472805  0.54042966  0.56242551  1
  Ce  Ce11  1  0.65548308  0.90941082  0.70248188  1
  C  C12  1  0.15150922  0.38928049  0.92980745  1
  C  C13  1  0.38931332  0.15147851  0.42975562  1
  C  C14  1  0.61068668  0.84852149  0.57024438  1
  C  C15  1  0.84849078  0.61071951  0.07019255  1
  Cl  Cl16  1  0.10096292  0.85037048  0.09870746  1
  Cl  Cl17  1  0.09994206  0.37896808  0.59516353  1
  Cl  Cl18  1  0.85037107  0.10080750  0.59861030  1
  Cl  Cl19  1  0.01529556  0.71994713  0.76521818  1
  Cl  Cl20  1  0.98470444  0.28005287  0.23478182  1
  Cl  Cl21  1  0.37979639  0.65502974  0.91854459  1
  Cl  Cl22  1  0.62020361  0.34497026  0.08145541  1
  Cl  Cl23  1  0.46367080  0.28308590  0.75657503  1
  Cl  Cl24  1  0.27997793  0.98481043  0.73488272  1
  Cl  Cl25  1  0.37909910  0.10018960  0.09517926  1
  Cl  Cl26  1  0.34472414  0.62032268  0.58154674  1
  Cl  Cl27  1  0.72002207  0.01518957  0.26511728  1
  Cl  Cl28  1  0.65527586  0.37967732  0.41845326  1
  Cl  Cl29  1  0.71717383  0.53648888  0.74325546  1
  Cl  Cl30  1  0.53632920  0.71691410  0.24342497  1
  Cl  Cl31  1  0.62090090  0.89981040  0.90482074  1
  Cl  Cl32  1  0.89903708  0.14962952  0.90129254  1
  Cl  Cl33  1  0.90005794  0.62103192  0.40483647  1
  Cl  Cl34  1  0.28282617  0.46351112  0.25674454  1
  Cl  Cl35  1  0.14962893  0.89919250  0.40138970  1
