# generated using pymatgen
data_Mg14NbCrO16
_symmetry_space_group_name_H-M   'P 1'
_cell_length_a   8.51144191
_cell_length_b   8.51144064
_cell_length_c   4.27259271
_cell_angle_alpha   90.00000000
_cell_angle_beta   90.00000000
_cell_angle_gamma   90.00000000
_symmetry_Int_Tables_number   1
_chemical_formula_structural   Mg14NbCrO16
_chemical_formula_sum   'Mg14 Nb1 Cr1 O16'
_cell_volume   309.52640903
_cell_formula_units_Z   1
loop_
 _symmetry_equiv_pos_site_id
 _symmetry_equiv_pos_as_xyz
  1  'x, y, z'
loop_
 _atom_site_type_symbol
 _atom_site_label
 _atom_site_symmetry_multiplicity
 _atom_site_fract_x
 _atom_site_fract_y
 _atom_site_fract_z
 _atom_site_occupancy
  Mg  Mg0  1  0.00000000  0.50000000  -0.00000000  1
  Mg  Mg1  1  0.50000000  -0.00000000  -0.00000000  1
  Mg  Mg2  1  0.00000000  0.25615296  0.50000000  1
  Mg  Mg3  1  0.00000000  0.74384704  0.50000000  1
  Mg  Mg4  1  0.50000000  0.24970665  0.50000000  1
  Mg  Mg5  1  0.50000000  0.75029335  0.50000000  1
  Mg  Mg6  1  0.25615315  -0.00000000  0.50000000  1
  Mg  Mg7  1  0.24970668  0.50000000  0.50000000  1
  Mg  Mg8  1  0.74384685  -0.00000000  0.50000000  1
  Mg  Mg9  1  0.75029332  0.50000000  0.50000000  1
  Mg  Mg10  1  0.25286628  0.25286633  -0.00000000  1
  Mg  Mg11  1  0.25286628  0.74713367  -0.00000000  1
  Mg  Mg12  1  0.74713372  0.25286633  0.00000000  1
  Mg  Mg13  1  0.74713372  0.74713367  0.00000000  1
  Nb  Nb14  1  0.00000000  -0.00000000  -0.00000000  1
  Cr  Cr15  1  0.50000000  0.50000000  -0.00000000  1
  O  O16  1  0.26184310  -0.00000000  0.00000000  1
  O  O17  1  0.24290770  0.50000000  -0.00000000  1
  O  O18  1  0.73815690  -0.00000000  -0.00000000  1
  O  O19  1  0.75709230  0.50000000  0.00000000  1
  O  O20  1  0.24995531  0.24995524  0.50000000  1
  O  O21  1  0.24995531  0.75004476  0.50000000  1
  O  O22  1  0.75004469  0.24995524  0.50000000  1
  O  O23  1  0.75004469  0.75004476  0.50000000  1
  O  O24  1  0.00000000  -0.00000000  0.50000000  1
  O  O25  1  0.00000000  0.50000000  0.50000000  1
  O  O26  1  0.50000000  -0.00000000  0.50000000  1
  O  O27  1  0.50000000  0.50000000  0.50000000  1
  O  O28  1  0.00000000  0.26184295  0.00000000  1
  O  O29  1  0.00000000  0.73815705  -0.00000000  1
  O  O30  1  0.50000000  0.24290789  -0.00000000  1
  O  O31  1  0.50000000  0.75709211  0.00000000  1
