# generated using pymatgen
data_MgMn4(NiO6)2
_symmetry_space_group_name_H-M   'P 1'
_cell_length_a   5.01009812
_cell_length_b   5.04062739
_cell_length_c   9.91330345
_cell_angle_alpha   84.99933349
_cell_angle_beta   86.03508257
_cell_angle_gamma   119.59486884
_symmetry_Int_Tables_number   1
_chemical_formula_structural   MgMn4(NiO6)2
_chemical_formula_sum   'Mg1 Mn4 Ni2 O12'
_cell_volume   215.03467186
_cell_formula_units_Z   1
loop_
 _symmetry_equiv_pos_site_id
 _symmetry_equiv_pos_as_xyz
  1  'x, y, z'
loop_
 _atom_site_type_symbol
 _atom_site_label
 _atom_site_symmetry_multiplicity
 _atom_site_fract_x
 _atom_site_fract_y
 _atom_site_fract_z
 _atom_site_occupancy
  Mg  Mg0  1  0.40464708  0.41682323  0.74932133  1
  Mn  Mn1  1  0.15318474  0.82203955  0.50359417  1
  Mn  Mn2  1  0.34640596  0.68479382  0.00316732  1
  Mn  Mn3  1  0.80920493  0.14978645  0.50358826  1
  Mn  Mn4  1  0.67712208  0.35369697  0.00388661  1
  Ni  Ni5  1  0.48776530  0.49276039  0.48188530  1
  Ni  Ni6  1  0.01019183  0.01804168  0.00318064  1
  O  O7  1  0.64853286  0.98660948  0.09750618  1
  O  O8  1  0.37258938  0.06366575  0.89839249  1
  O  O9  1  0.76623077  0.45715641  0.60087665  1
  O  O10  1  0.51110095  0.14898723  0.39763037  1
  O  O11  1  0.85916841  0.86814357  0.40202922  1
  O  O12  1  0.67713589  0.68552115  0.88967058  1
  O  O13  1  0.98172534  0.65452038  0.09765998  1
  O  O14  1  0.05245639  0.38238533  0.89801854  1
  O  O15  1  0.44977722  0.79097208  0.61086460  1
  O  O16  1  0.13919669  0.14418043  0.60130802  1
  O  O17  1  0.34099545  0.34786553  0.10570480  1
  O  O18  1  0.16256974  0.51955057  0.40171594  1
