# generated using pymatgen
data_Mg14TiCdO16
_symmetry_space_group_name_H-M   'P 1'
_cell_length_a   8.64472275
_cell_length_b   8.68095038
_cell_length_c   4.31485149
_cell_angle_alpha   90.00000000
_cell_angle_beta   90.00000000
_cell_angle_gamma   90.00000000
_symmetry_Int_Tables_number   1
_chemical_formula_structural   Mg14TiCdO16
_chemical_formula_sum   'Mg14 Ti1 Cd1 O16'
_cell_volume   323.80548103
_cell_formula_units_Z   1
loop_
 _symmetry_equiv_pos_site_id
 _symmetry_equiv_pos_as_xyz
  1  'x, y, z'
loop_
 _atom_site_type_symbol
 _atom_site_label
 _atom_site_symmetry_multiplicity
 _atom_site_fract_x
 _atom_site_fract_y
 _atom_site_fract_z
 _atom_site_occupancy
  Mg  Mg0  1  0.50000000  0.00000000  0.00000000  1
  Mg  Mg1  1  0.50000000  0.50000000  0.00000000  1
  Mg  Mg2  1  -0.00000000  0.24836628  0.50000000  1
  Mg  Mg3  1  -0.00000000  0.75163372  0.50000000  1
  Mg  Mg4  1  0.50000000  0.25036015  0.50000000  1
  Mg  Mg5  1  0.50000000  0.74963985  0.50000000  1
  Mg  Mg6  1  0.25264325  0.00000000  0.50000000  1
  Mg  Mg7  1  0.25540167  0.50000000  0.50000000  1
  Mg  Mg8  1  0.74735675  0.00000000  0.50000000  1
  Mg  Mg9  1  0.74459833  0.50000000  0.50000000  1
  Mg  Mg10  1  0.25392866  0.24974325  -0.00000000  1
  Mg  Mg11  1  0.25392866  0.75025675  -0.00000000  1
  Mg  Mg12  1  0.74607134  0.24974325  0.00000000  1
  Mg  Mg13  1  0.74607134  0.75025675  0.00000000  1
  Ti  Ti14  1  -0.00000000  0.00000000  0.00000000  1
  Cd  Cd15  1  -0.00000000  0.50000000  0.00000000  1
  O  O16  1  0.25473302  0.00000000  -0.00000000  1
  O  O17  1  0.26753040  0.50000000  -0.00000000  1
  O  O18  1  0.74526698  0.00000000  0.00000000  1
  O  O19  1  0.73246960  0.50000000  0.00000000  1
  O  O20  1  0.24864490  0.24985987  0.50000000  1
  O  O21  1  0.24864490  0.75014013  0.50000000  1
  O  O22  1  0.75135510  0.24985987  0.50000000  1
  O  O23  1  0.75135510  0.75014013  0.50000000  1
  O  O24  1  -0.00000000  0.00000000  0.50000000  1
  O  O25  1  -0.00000000  0.50000000  0.50000000  1
  O  O26  1  0.50000000  0.00000000  0.50000000  1
  O  O27  1  0.50000000  0.50000000  0.50000000  1
  O  O28  1  -0.00000000  0.23723788  0.00000000  1
  O  O29  1  -0.00000000  0.76276212  0.00000000  1
  O  O30  1  0.50000000  0.24703857  -0.00000000  1
  O  O31  1  0.50000000  0.75296143  0.00000000  1
