# generated using pymatgen
data_Sr14GaAs11
_symmetry_space_group_name_H-M   'P 1'
_cell_length_a   16.14594251
_cell_length_b   16.14594251
_cell_length_c   16.14594251
_cell_angle_alpha   61.73493305
_cell_angle_beta   61.69382902
_cell_angle_gamma   92.99596715
_symmetry_Int_Tables_number   1
_chemical_formula_structural   Sr14GaAs11
_chemical_formula_sum   'Sr56 Ga4 As44'
_cell_volume   3048.90460983
_cell_formula_units_Z   4
loop_
 _symmetry_equiv_pos_site_id
 _symmetry_equiv_pos_as_xyz
  1  'x, y, z'
loop_
 _atom_site_type_symbol
 _atom_site_label
 _atom_site_symmetry_multiplicity
 _atom_site_fract_x
 _atom_site_fract_y
 _atom_site_fract_z
 _atom_site_occupancy
  Sr  Sr0  1  0.75394952  0.37318830  0.53493552  1
  Sr  Sr1  1  0.25394952  0.78888504  0.61923878  1
  Sr  Sr2  1  0.37471283  0.75973329  0.02218741  1
  Sr  Sr3  1  0.87471283  0.89690023  0.38502046  1
  Sr  Sr4  1  0.24174364  0.62693789  0.47675864  1
  Sr  Sr5  1  0.74174364  0.21850228  0.38519426  1
  Sr  Sr6  1  0.62812584  0.24748144  0.96415963  1
  Sr  Sr7  1  0.12812584  0.09228547  0.61935560  1
  Sr  Sr8  1  0.89630346  0.87306211  0.88519426  1
  Sr  Sr9  1  0.39630346  0.28149772  0.97675864  1
  Sr  Sr10  1  0.78835894  0.25251856  0.11935560  1
  Sr  Sr11  1  0.28835894  0.40771453  0.46415963  1
  Sr  Sr12  1  0.09187618  0.12681170  0.11923878  1
  Sr  Sr13  1  0.59187618  0.71111496  0.03493552  1
  Sr  Sr14  1  0.21807930  0.74026671  0.88502046  1
  Sr  Sr15  1  0.71807930  0.60309977  0.52218741  1
  Sr  Sr16  1  0.98059366  0.62502756  0.90063065  1
  Sr  Sr17  1  0.48059366  0.38122431  0.64443389  1
  Sr  Sr18  1  0.62417735  0.98016348  0.40070033  1
  Sr  Sr19  1  0.12417735  0.52487768  0.35598613  1
  Sr  Sr20  1  0.01772356  0.37070057  0.10017656  1
  Sr  Sr21  1  0.51772356  0.61790010  0.35297701  1
  Sr  Sr22  1  0.36997641  0.01754497  0.60014120  1
  Sr  Sr23  1  0.86997641  0.47011761  0.64756856  1
  Sr  Sr24  1  0.52912289  0.12929943  0.85297701  1
  Sr  Sr25  1  0.02912289  0.88209990  0.60017656  1
  Sr  Sr26  1  0.38231383  0.48245503  0.14756856  1
  Sr  Sr27  1  0.88231383  0.02988239  0.10014120  1
  Sr  Sr28  1  0.47434179  0.87497244  0.14443389  1
  Sr  Sr29  1  0.97434179  0.11877569  0.40063065  1
  Sr  Sr30  1  0.61913619  0.51983652  0.85598613  1
  Sr  Sr31  1  0.11913619  0.97512232  0.90070033  1
  Sr  Sr32  1  0.66384708  0.43303690  0.08819269  1
  Sr  Sr33  1  0.16384708  0.25203977  0.76918982  1
  Sr  Sr34  1  0.43694064  0.66488811  0.58470403  1
  Sr  Sr35  1  0.93694064  0.52164466  0.22794748  1
  Sr  Sr36  1  0.33359515  0.55522407  0.92029437  1
  Sr  Sr37  1  0.83359515  0.75388953  0.22162892  1
  Sr  Sr38  1  0.55930647  0.33442339  0.41664054  1
  Sr  Sr39  1  0.05930647  0.47594701  0.77511692  1
  Sr  Sr40  1  0.52448155  0.94477593  0.72162892  1
  Sr  Sr41  1  0.02448155  0.74611047  0.42029437  1
  Sr  Sr42  1  0.24893606  0.16557661  0.27511692  1
  Sr  Sr43  1  0.74893606  0.02405299  0.91664054  1
  Sr  Sr44  1  0.47877041  0.06696310  0.26918982  1
  Sr  Sr45  1  0.97877041  0.24796023  0.58819269  1
  Sr  Sr46  1  0.75040786  0.83511189  0.72794748  1
  Sr  Sr47  1  0.25040786  0.97835534  0.08470403  1
  Sr  Sr48  1  0.60128826  0.75000000  0.64871174  1
  Sr  Sr49  1  0.10128826  0.75000000  0.14871174  1
  Sr  Sr50  1  0.74622857  0.59768755  0.14960348  1
  Sr  Sr51  1  0.24622857  0.39583205  0.85145898  1
  Sr  Sr52  1  0.39910231  0.25000000  0.35089769  1
  Sr  Sr53  1  0.89910231  0.25000000  0.85089769  1
  Sr  Sr54  1  0.75270897  0.10416795  0.64960348  1
  Sr  Sr55  1  0.25270897  0.90231245  0.35145898  1
  Ga  Ga56  1  0.62397580  0.87520186  0.25061815  1
  Ga  Ga57  1  0.12397580  0.37459395  0.25122606  1
  Ga  Ga58  1  0.87417999  0.62479814  0.75122606  1
  Ga  Ga59  1  0.37417999  0.12540605  0.75061815  1
  As  As60  1  0.26205737  0.01195475  0.47659782  1
  As  As61  1  0.76205737  0.23865520  0.74989738  1
  As  As62  1  0.01144742  0.26134480  0.97659782  1
  As  As63  1  0.51144742  0.48804525  0.24989738  1
  As  As64  1  0.74542763  0.99545367  0.50929646  1
  As  As65  1  0.24542763  0.75472410  0.25002604  1
  As  As66  1  0.99524987  0.74527590  0.00929646  1
  As  As67  1  0.49524987  0.50454633  0.75002604  1
  As  As68  1  0.81524341  0.42914282  0.87870399  1
  As  As69  1  0.31524341  0.19394740  0.61389941  1
  As  As70  1  0.42894680  0.81682518  0.37929460  1
  As  As71  1  0.92894680  0.30824139  0.38787838  1
  As  As72  1  0.18404952  0.56990135  0.12178649  1
  As  As73  1  0.68404952  0.80583602  0.38585182  1
  As  As74  1  0.57035327  0.18642348  0.62226258  1
  As  As75  1  0.07035327  0.69261585  0.61607022  1
  As  As76  1  0.30831216  0.93009865  0.88585182  1
  As  As77  1  0.80831216  0.69416398  0.62178649  1
  As  As78  1  0.19131394  0.31357652  0.11607022  1
  As  As79  1  0.69131394  0.80738415  0.12226258  1
  As  As80  1  0.69215319  0.07085718  0.11389941  1
  As  As81  1  0.19215319  0.30605260  0.37870399  1
  As  As82  1  0.80388022  0.68317482  0.88787838  1
  As  As83  1  0.30388022  0.19175861  0.87929460  1
  As  As84  1  0.82560234  0.42779196  0.15451393  1
  As  As85  1  0.32560234  0.48011628  0.60218962  1
  As  As86  1  0.42837043  0.82340884  0.65637567  1
  As  As87  1  0.92837043  0.58474610  0.39503841  1
  As  As88  1  0.17878651  0.57200857  0.84310570  1
  As  As89  1  0.67878651  0.52189221  0.39322207  1
  As  As90  1  0.57244532  0.17634228  0.34497860  1
  As  As91  1  0.07244532  0.41742393  0.60389695  1
  As  As92  1  0.58488572  0.92799143  0.89322207  1
  As  As93  1  0.08488572  0.97810779  0.34310570  1
  As  As94  1  0.47867912  0.32365772  0.10389695  1
  As  As95  1  0.97867912  0.08257607  0.84497860  1
  As  As96  1  0.41769410  0.07220804  0.10218962  1
  As  As97  1  0.91769410  0.01988372  0.65451393  1
  As  As98  1  0.52021550  0.67659116  0.89503841  1
  As  As99  1  0.02021550  0.91525390  0.15637567  1
  As  As100  1  0.11029811  0.86008894  0.77982752  1
  As  As101  1  0.61029811  0.39012564  0.74979083  1
  As  As102  1  0.86008354  0.10987436  0.27982752  1
  As  As103  1  0.36008354  0.63991106  0.24979083  1
