# generated using pymatgen
data_Na4Mg(WO4)2
_symmetry_space_group_name_H-M   'P 1'
_cell_length_a   6.56556425
_cell_length_b   6.56556425
_cell_length_c   6.82050606
_cell_angle_alpha   61.22896313
_cell_angle_beta   61.22896313
_cell_angle_gamma   60.00000000
_symmetry_Int_Tables_number   1
_chemical_formula_structural   Na4Mg(WO4)2
_chemical_formula_sum   'Na4 Mg1 W2 O8'
_cell_volume   211.67428497
_cell_formula_units_Z   1
loop_
 _symmetry_equiv_pos_site_id
 _symmetry_equiv_pos_as_xyz
  1  'x, y, z'
loop_
 _atom_site_type_symbol
 _atom_site_label
 _atom_site_symmetry_multiplicity
 _atom_site_fract_x
 _atom_site_fract_y
 _atom_site_fract_z
 _atom_site_occupancy
  Na  Na0  1  0.00000000  0.00000000  0.50000000  1
  Na  Na1  1  0.00000000  0.50000000  0.00000000  1
  Na  Na2  1  0.50000000  0.00000000  0.00000000  1
  Na  Na3  1  0.00000000  0.00000000  0.00000000  1
  Mg  Mg4  1  0.50000000  0.50000000  0.00000000  1
  W  W5  1  0.34773600  0.34773600  0.45679300  1
  W  W6  1  0.65226400  0.65226400  0.54320700  1
  O  O7  1  0.23944500  0.23944500  0.78166500  1
  O  O8  1  0.27094700  0.69217100  0.26593600  1
  O  O9  1  0.69217100  0.27094700  0.26593600  1
  O  O10  1  0.27094700  0.27094700  0.26593600  1
  O  O11  1  0.76055500  0.76055500  0.21833500  1
  O  O12  1  0.72905300  0.30782900  0.73406400  1
  O  O13  1  0.30782900  0.72905300  0.73406400  1
  O  O14  1  0.72905300  0.72905300  0.73406400  1
