# generated using pymatgen
data_Sr5Nb4O15
_symmetry_space_group_name_H-M   'P 1'
_cell_length_a   5.70620053
_cell_length_b   5.70620053
_cell_length_c   11.56647296
_cell_angle_alpha   89.77786783
_cell_angle_beta   89.77786783
_cell_angle_gamma   59.93027973
_symmetry_Int_Tables_number   1
_chemical_formula_structural   Sr5Nb4O15
_chemical_formula_sum   'Sr5 Nb4 O15'
_cell_volume   325.92355472
_cell_formula_units_Z   1
loop_
 _symmetry_equiv_pos_site_id
 _symmetry_equiv_pos_as_xyz
  1  'x, y, z'
loop_
 _atom_site_type_symbol
 _atom_site_label
 _atom_site_symmetry_multiplicity
 _atom_site_fract_x
 _atom_site_fract_y
 _atom_site_fract_z
 _atom_site_occupancy
  Sr  Sr0  1  0.33360468  0.33360468  0.21946675  1
  Sr  Sr1  1  0.66639532  0.66639532  0.78053325  1
  Sr  Sr2  1  0.33242789  0.33242789  0.56222017  1
  Sr  Sr3  1  0.66757211  0.66757211  0.43777983  1
  Sr  Sr4  1  0.00000000  -0.00000000  0.00000000  1
  Nb  Nb5  1  0.00031543  0.00031543  0.67854995  1
  Nb  Nb6  1  0.99968457  0.99968457  0.32145005  1
  Nb  Nb7  1  0.33414760  0.33414760  0.89387948  1
  Nb  Nb8  1  0.66585240  0.66585240  0.10612052  1
  O  O9  1  0.65936718  0.16947607  0.39297349  1
  O  O10  1  0.67351135  0.16686557  0.80673261  1
  O  O11  1  0.83052393  0.34063282  0.60702651  1
  O  O12  1  0.16970187  0.16970187  0.39184028  1
  O  O13  1  0.16686557  0.67351135  0.80673261  1
  O  O14  1  0.34063282  0.83052393  0.60702651  1
  O  O15  1  0.00000000  0.50000000  0.00000000  1
  O  O16  1  0.83029813  0.83029813  0.60815972  1
  O  O17  1  0.83213523  0.83213523  0.19596119  1
  O  O18  1  0.50000000  -0.00000000  0.00000000  1
  O  O19  1  0.83313443  0.32648865  0.19326739  1
  O  O20  1  0.16786477  0.16786477  0.80403881  1
  O  O21  1  0.32648865  0.83313443  0.19326739  1
  O  O22  1  0.16947607  0.65936718  0.39297349  1
  O  O23  1  0.50000000  0.50000000  0.00000000  1
