# generated using pymatgen
data_MgMn5NiO12
_symmetry_space_group_name_H-M   'P 1'
_cell_length_a   5.05636841
_cell_length_b   5.05624075
_cell_length_c   9.89214569
_cell_angle_alpha   94.19472842
_cell_angle_beta   94.15163527
_cell_angle_gamma   118.69141190
_symmetry_Int_Tables_number   1
_chemical_formula_structural   MgMn5NiO12
_chemical_formula_sum   'Mg1 Mn5 Ni1 O12'
_cell_volume   219.58122591
_cell_formula_units_Z   1
loop_
 _symmetry_equiv_pos_site_id
 _symmetry_equiv_pos_as_xyz
  1  'x, y, z'
loop_
 _atom_site_type_symbol
 _atom_site_label
 _atom_site_symmetry_multiplicity
 _atom_site_fract_x
 _atom_site_fract_y
 _atom_site_fract_z
 _atom_site_occupancy
  Mg  Mg0  1  0.89878300  0.90369700  0.75238800  1
  Mn  Mn1  1  0.17776900  0.85531500  0.49769900  1
  Mn  Mn2  1  0.31804600  0.65372900  0.99714000  1
  Mn  Mn3  1  0.50829000  0.51749800  0.48826000  1
  Mn  Mn4  1  0.64647300  0.32492100  0.99714600  1
  Mn  Mn5  1  0.84611000  0.18664400  0.49807900  1
  Ni  Ni6  1  0.98899300  0.99612700  0.01937000  1
  O  O7  1  0.00600800  0.66506700  0.09778200  1
  O  O8  1  0.26890500  0.96132300  0.90041300  1
  O  O9  1  0.13983900  0.49011500  0.40137700  1
  O  O10  1  0.55250300  0.88137900  0.60118200  1
  O  O11  1  0.37919700  0.38645100  0.10216700  1
  O  O12  1  0.16702500  0.17600200  0.61220900  1
  O  O13  1  0.61692200  0.62360500  0.89072400  1
  O  O14  1  0.85663200  0.86589700  0.39295700  1
  O  O15  1  0.48160700  0.14937400  0.40144600  1
  O  O16  1  0.87255200  0.56181000  0.60112600  1
  O  O17  1  0.95461300  0.27526700  0.90066100  1
  O  O18  1  0.65723300  0.01327900  0.09787500  1
