# generated using pymatgen
data_ZnH6(SO4)4
_symmetry_space_group_name_H-M   'P 1'
_cell_length_a   5.02552410
_cell_length_b   15.24032698
_cell_length_c   7.94500380
_cell_angle_alpha   90.00000000
_cell_angle_beta   104.23296730
_cell_angle_gamma   90.00000000
_symmetry_Int_Tables_number   1
_chemical_formula_structural   ZnH6(SO4)4
_chemical_formula_sum   'Zn2 H12 S8 O32'
_cell_volume   589.83396611
_cell_formula_units_Z   2
loop_
 _symmetry_equiv_pos_site_id
 _symmetry_equiv_pos_as_xyz
  1  'x, y, z'
loop_
 _atom_site_type_symbol
 _atom_site_label
 _atom_site_symmetry_multiplicity
 _atom_site_fract_x
 _atom_site_fract_y
 _atom_site_fract_z
 _atom_site_occupancy
  Zn  Zn0  1  0.00000000  -0.00000000  -0.00000000  1
  Zn  Zn1  1  0.00000000  0.50000000  0.50000000  1
  H  H2  1  0.28342538  0.97694277  0.60979968  1
  H  H3  1  0.71657462  0.47694277  0.89020032  1
  H  H4  1  0.71657462  0.02305723  0.39020032  1
  H  H5  1  0.28342538  0.52305723  0.10979968  1
  H  H6  1  0.42669134  0.73747905  0.84389146  1
  H  H7  1  0.57330866  0.23747905  0.65610854  1
  H  H8  1  0.57330866  0.26252095  0.15610854  1
  H  H9  1  0.42669134  0.76252095  0.34389146  1
  H  H10  1  0.80982215  0.73587897  0.68846997  1
  H  H11  1  0.19017785  0.23587897  0.81153003  1
  H  H12  1  0.19017785  0.26412103  0.31153003  1
  H  H13  1  0.80982215  0.76412103  0.18846997  1
  S  S14  1  0.42609906  0.08738390  0.77262352  1
  S  S15  1  0.57390094  0.58738390  0.72737648  1
  S  S16  1  0.57390094  0.91261610  0.22737648  1
  S  S17  1  0.42609906  0.41261610  0.27262352  1
  S  S18  1  0.12443899  0.83561866  0.74429073  1
  S  S19  1  0.87556101  0.33561866  0.75570927  1
  S  S20  1  0.87556101  0.16438134  0.25570927  1
  S  S21  1  0.12443899  0.66438134  0.24429073  1
  O  O22  1  0.38292391  0.18127794  0.73247453  1
  O  O23  1  0.61707609  0.68127794  0.76752547  1
  O  O24  1  0.61707609  0.81872206  0.26752547  1
  O  O25  1  0.38292391  0.31872206  0.23247453  1
  O  O26  1  0.30060522  0.06184587  0.91047189  1
  O  O27  1  0.69939478  0.56184587  0.58952811  1
  O  O28  1  0.69939478  0.93815413  0.08952811  1
  O  O29  1  0.30060522  0.43815413  0.41047189  1
  O  O30  1  0.71521217  0.06500015  0.80826477  1
  O  O31  1  0.28478783  0.56500015  0.69173523  1
  O  O32  1  0.28478783  0.93499985  0.19173523  1
  O  O33  1  0.71521217  0.43499985  0.30826477  1
  O  O34  1  0.27608503  0.04299524  0.60106510  1
  O  O35  1  0.72391497  0.54299524  0.89893490  1
  O  O36  1  0.72391497  0.95700476  0.39893490  1
  O  O37  1  0.27608503  0.45700476  0.10106510  1
  O  O38  1  0.97255512  0.89390115  0.82778316  1
  O  O39  1  0.02744488  0.39390115  0.67221684  1
  O  O40  1  0.02744488  0.10609885  0.17221684  1
  O  O41  1  0.97255512  0.60609885  0.32778316  1
  O  O42  1  0.28695722  0.87453792  0.63890304  1
  O  O43  1  0.71304278  0.37453792  0.86109696  1
  O  O44  1  0.71304278  0.12546208  0.36109696  1
  O  O45  1  0.28695722  0.62546208  0.13890304  1
  O  O46  1  0.30393724  0.78022024  0.88913112  1
  O  O47  1  0.69606276  0.28022024  0.61086888  1
  O  O48  1  0.69606276  0.21977976  0.11086888  1
  O  O49  1  0.30393724  0.71977976  0.38913112  1
  O  O50  1  0.92970980  0.77167522  0.62726974  1
  O  O51  1  0.07029020  0.27167522  0.87273026  1
  O  O52  1  0.07029020  0.22832478  0.37273026  1
  O  O53  1  0.92970980  0.72832478  0.12726974  1
