# generated using pymatgen
data_LaMg6Fe
_symmetry_space_group_name_H-M   'P 1'
_cell_length_a   4.82437300
_cell_length_b   6.34625400
_cell_length_c   11.76659400
_cell_angle_alpha   90.00000000
_cell_angle_beta   90.00000000
_cell_angle_gamma   90.00000000
_symmetry_Int_Tables_number   1
_chemical_formula_structural   LaMg6Fe
_chemical_formula_sum   'La2 Mg12 Fe2'
_cell_volume   360.25423673
_cell_formula_units_Z   2
loop_
 _symmetry_equiv_pos_site_id
 _symmetry_equiv_pos_as_xyz
  1  'x, y, z'
loop_
 _atom_site_type_symbol
 _atom_site_label
 _atom_site_symmetry_multiplicity
 _atom_site_fract_x
 _atom_site_fract_y
 _atom_site_fract_z
 _atom_site_occupancy
  La  La0  1  0.50000000  0.50000000  0.20452200  1
  La  La1  1  0.50000000  0.00000000  0.70452200  1
  Mg  Mg2  1  0.00000000  0.75637000  0.06698400  1
  Mg  Mg3  1  0.00000000  0.24363000  0.06698400  1
  Mg  Mg4  1  0.00000000  0.00000000  0.32113100  1
  Mg  Mg5  1  0.50000000  0.25126100  0.42964100  1
  Mg  Mg6  1  0.50000000  0.74873900  0.42964100  1
  Mg  Mg7  1  0.50000000  0.00000000  0.15853500  1
  Mg  Mg8  1  0.00000000  0.25637000  0.56698400  1
  Mg  Mg9  1  0.00000000  0.74363000  0.56698400  1
  Mg  Mg10  1  0.00000000  0.50000000  0.82113100  1
  Mg  Mg11  1  0.50000000  0.75126100  0.92964100  1
  Mg  Mg12  1  0.50000000  0.24873900  0.92964100  1
  Mg  Mg13  1  0.50000000  0.50000000  0.65853500  1
  Fe  Fe14  1  0.00000000  0.50000000  0.32256000  1
  Fe  Fe15  1  0.00000000  0.00000000  0.82256000  1
