# generated using pymatgen
data_MgMn8O13F3
_symmetry_space_group_name_H-M   'P 1'
_cell_length_a   7.08975512
_cell_length_b   5.63550359
_cell_length_c   6.83082088
_cell_angle_alpha   89.73328736
_cell_angle_beta   94.04482069
_cell_angle_gamma   94.08585430
_symmetry_Int_Tables_number   1
_chemical_formula_structural   MgMn8O13F3
_chemical_formula_sum   'Mg1 Mn8 O13 F3'
_cell_volume   271.54919969
_cell_formula_units_Z   1
loop_
 _symmetry_equiv_pos_site_id
 _symmetry_equiv_pos_as_xyz
  1  'x, y, z'
loop_
 _atom_site_type_symbol
 _atom_site_label
 _atom_site_symmetry_multiplicity
 _atom_site_fract_x
 _atom_site_fract_y
 _atom_site_fract_z
 _atom_site_occupancy
  Mg  Mg0  1  0.34010500  0.57009500  0.62163200  1
  Mn  Mn1  1  0.35663800  0.34541200  0.12568800  1
  Mn  Mn2  1  0.10297400  0.78514700  0.33171600  1
  Mn  Mn3  1  0.84920400  0.16849700  0.11332600  1
  Mn  Mn4  1  0.40449700  0.09175800  0.64968200  1
  Mn  Mn5  1  0.12540000  0.84201700  0.88443700  1
  Mn  Mn6  1  0.61508700  0.85753400  0.36320700  1
  Mn  Mn7  1  0.63024900  0.62023300  0.87969500  1
  Mn  Mn8  1  0.87012000  0.36073900  0.62468600  1
  O  O9  1  0.13658600  0.09436800  0.09433500  1
  O  O10  1  0.16650500  0.61228700  0.10332100  1
  O  O11  1  0.57003800  0.59599600  0.15800900  1
  O  O12  1  0.07014800  0.61806700  0.65249200  1
  O  O13  1  0.35791300  0.84809300  0.43914900  1
  O  O14  1  0.13856200  0.08254300  0.68521200  1
  O  O15  1  0.57853900  0.10637600  0.16933500  1
  O  O16  1  0.41896000  0.83574600  0.82858000  1
  O  O17  1  0.65964900  0.10118700  0.57408400  1
  O  O18  1  0.86769500  0.91366100  0.30850000  1
  O  O19  1  0.43309200  0.35864100  0.83877600  1
  O  O20  1  0.64565700  0.60937400  0.59463300  1
  O  O21  1  0.82215000  0.39199600  0.89935400  1
  F  F22  1  0.33088900  0.32167700  0.43024200  1
  F  F23  1  0.92347500  0.40019200  0.35127300  1
  F  F24  1  0.82587100  0.87312400  0.90863400  1
