# generated using pymatgen
data_Mg6SiC
_symmetry_space_group_name_H-M   'P 1'
_cell_length_a   4.54269400
_cell_length_b   6.14569300
_cell_length_c   10.89567400
_cell_angle_alpha   90.00000000
_cell_angle_beta   90.00000000
_cell_angle_gamma   90.00000000
_symmetry_Int_Tables_number   1
_chemical_formula_structural   Mg6SiC
_chemical_formula_sum   'Mg12 Si2 C2'
_cell_volume   304.18545633
_cell_formula_units_Z   2
loop_
 _symmetry_equiv_pos_site_id
 _symmetry_equiv_pos_as_xyz
  1  'x, y, z'
loop_
 _atom_site_type_symbol
 _atom_site_label
 _atom_site_symmetry_multiplicity
 _atom_site_fract_x
 _atom_site_fract_y
 _atom_site_fract_z
 _atom_site_occupancy
  Mg  Mg0  1  0.00000000  0.78238200  0.61380300  1
  Mg  Mg1  1  0.00000000  0.21761800  0.61380300  1
  Mg  Mg2  1  0.00000000  0.50000000  0.84349300  1
  Mg  Mg3  1  0.50000000  0.24111200  0.91532400  1
  Mg  Mg4  1  0.50000000  0.75888800  0.91532400  1
  Mg  Mg5  1  0.50000000  0.50000000  0.66388400  1
  Mg  Mg6  1  0.00000000  0.28238200  0.11380300  1
  Mg  Mg7  1  0.00000000  0.71761800  0.11380300  1
  Mg  Mg8  1  0.00000000  0.00000000  0.34349300  1
  Mg  Mg9  1  0.50000000  0.74111200  0.41532400  1
  Mg  Mg10  1  0.50000000  0.25888800  0.41532400  1
  Mg  Mg11  1  0.50000000  0.00000000  0.16388400  1
  Si  Si12  1  0.00000000  0.00000000  0.87570000  1
  Si  Si13  1  0.00000000  0.50000000  0.37570000  1
  C  C14  1  0.50000000  0.00000000  0.55866800  1
  C  C15  1  0.50000000  0.50000000  0.05866800  1
