# generated using pymatgen
data_Tb4C2Br3
_symmetry_space_group_name_H-M   'P 1'
_cell_length_a   3.69821973
_cell_length_b   10.79166764
_cell_length_c   20.40949899
_cell_angle_alpha   90.00000000
_cell_angle_beta   90.00000000
_cell_angle_gamma   90.00000000
_symmetry_Int_Tables_number   1
_chemical_formula_structural   Tb4C2Br3
_chemical_formula_sum   'Tb16 C8 Br12'
_cell_volume   814.54225129
_cell_formula_units_Z   4
loop_
 _symmetry_equiv_pos_site_id
 _symmetry_equiv_pos_as_xyz
  1  'x, y, z'
loop_
 _atom_site_type_symbol
 _atom_site_label
 _atom_site_symmetry_multiplicity
 _atom_site_fract_x
 _atom_site_fract_y
 _atom_site_fract_z
 _atom_site_occupancy
  Tb  Tb0  1  0.25000000  0.86712766  0.57939545  1
  Tb  Tb1  1  0.75000000  0.13287234  0.42060455  1
  Tb  Tb2  1  0.75000000  0.63287234  0.07939545  1
  Tb  Tb3  1  0.25000000  0.36712766  0.92060455  1
  Tb  Tb4  1  0.25000000  0.86928151  0.74446672  1
  Tb  Tb5  1  0.75000000  0.13071849  0.25553328  1
  Tb  Tb6  1  0.75000000  0.63071849  0.24446672  1
  Tb  Tb7  1  0.25000000  0.36928151  0.75553328  1
  Tb  Tb8  1  0.25000000  0.86585443  0.16871086  1
  Tb  Tb9  1  0.75000000  0.13414557  0.83128914  1
  Tb  Tb10  1  0.75000000  0.63414557  0.66871086  1
  Tb  Tb11  1  0.25000000  0.36585443  0.33128914  1
  Tb  Tb12  1  0.25000000  0.89676723  0.32952220  1
  Tb  Tb13  1  0.75000000  0.10323277  0.67047780  1
  Tb  Tb14  1  0.75000000  0.60323277  0.82952220  1
  Tb  Tb15  1  0.25000000  0.39676723  0.17047780  1
  C  C16  1  0.25000000  0.61751484  0.75086147  1
  C  C17  1  0.75000000  0.38248516  0.24913853  1
  C  C18  1  0.75000000  0.88248516  0.25086147  1
  C  C19  1  0.25000000  0.11751484  0.74913853  1
  C  C20  1  0.25000000  0.63031728  0.15572434  1
  C  C21  1  0.75000000  0.36968272  0.84427566  1
  C  C22  1  0.75000000  0.86968272  0.65572434  1
  C  C23  1  0.25000000  0.13031728  0.34427566  1
  Br  Br24  1  0.25000000  0.61426249  0.55470176  1
  Br  Br25  1  0.75000000  0.38573751  0.44529824  1
  Br  Br26  1  0.75000000  0.88573751  0.05470176  1
  Br  Br27  1  0.25000000  0.11426249  0.94529824  1
  Br  Br28  1  0.25000000  0.62882499  0.95373999  1
  Br  Br29  1  0.75000000  0.37117501  0.04626001  1
  Br  Br30  1  0.75000000  0.87117501  0.45373999  1
  Br  Br31  1  0.25000000  0.12882499  0.54626001  1
  Br  Br32  1  0.25000000  0.63296031  0.35790961  1
  Br  Br33  1  0.75000000  0.36703969  0.64209039  1
  Br  Br34  1  0.75000000  0.86703969  0.85790961  1
  Br  Br35  1  0.25000000  0.13296031  0.14209039  1
