# generated using pymatgen
data_CaLaNbCoO6
_symmetry_space_group_name_H-M   'P 1'
_cell_length_a   5.75215555
_cell_length_b   9.73227218
_cell_length_c   9.70181117
_cell_angle_alpha   70.08956945
_cell_angle_beta   90.01605945
_cell_angle_gamma   89.96075148
_symmetry_Int_Tables_number   1
_chemical_formula_structural   CaLaNbCoO6
_chemical_formula_sum   'Ca4 La4 Nb4 Co4 O24'
_cell_volume   510.65765072
_cell_formula_units_Z   4
loop_
 _symmetry_equiv_pos_site_id
 _symmetry_equiv_pos_as_xyz
  1  'x, y, z'
loop_
 _atom_site_type_symbol
 _atom_site_label
 _atom_site_symmetry_multiplicity
 _atom_site_fract_x
 _atom_site_fract_y
 _atom_site_fract_z
 _atom_site_occupancy
  Ca  Ca0  1  0.55489700  0.88243700  0.36959500  1
  Ca  Ca1  1  0.55131900  0.38159700  0.86854300  1
  Ca  Ca2  1  0.94591100  0.88194500  0.86968200  1
  Ca  Ca3  1  0.94722000  0.38251800  0.36860600  1
  La  La4  1  0.44834800  0.11812700  0.62928700  1
  La  La5  1  0.45205400  0.61918600  0.12997800  1
  La  La6  1  0.05080100  0.11885800  0.12926600  1
  La  La7  1  0.04920100  0.61854100  0.62965000  1
  Nb  Nb8  1  0.50482500  0.24950100  0.24934800  1
  Nb  Nb9  1  0.50375000  0.74889100  0.74914800  1
  Nb  Nb10  1  0.99456300  0.24928400  0.74893300  1
  Nb  Nb11  1  0.99679800  0.74925900  0.24934400  1
  Co  Co12  1  0.49986500  0.49962000  0.50016600  1
  Co  Co13  1  0.00008100  0.49953100  0.00020100  1
  Co  Co14  1  0.49920400  0.99982300  0.00044200  1
  Co  Co15  1  0.00061500  0.99959400  0.50065300  1
  O  O16  1  0.30846200  0.08018800  0.37357700  1
  O  O17  1  0.30685600  0.57993100  0.87182300  1
  O  O18  1  0.19225200  0.07993400  0.87299800  1
  O  O19  1  0.19281400  0.57981800  0.37255700  1
  O  O20  1  0.69937200  0.91848000  0.62737700  1
  O  O21  1  0.70163000  0.41867400  0.12980600  1
  O  O22  1  0.79987700  0.91878500  0.12778400  1
  O  O23  1  0.79895100  0.41892500  0.62889100  1
  O  O24  1  0.79139000  0.12604400  0.32248600  1
  O  O25  1  0.78999000  0.62669100  0.82200900  1
  O  O26  1  0.70887700  0.12610100  0.82223400  1
  O  O27  1  0.71048900  0.62689700  0.32184500  1
  O  O28  1  0.21272000  0.87259100  0.68082600  1
  O  O29  1  0.21442600  0.37238000  0.18126400  1
  O  O30  1  0.28717900  0.87261400  0.18116400  1
  O  O31  1  0.28546200  0.37193600  0.68164200  1
  O  O32  1  0.96549300  0.82546500  0.41824600  1
  O  O33  1  0.96432000  0.32602200  0.91874800  1
  O  O34  1  0.53482400  0.32631700  0.41891100  1
  O  O35  1  0.53438300  0.82569600  0.91801200  1
  O  O36  1  0.02928200  0.17755600  0.57871100  1
  O  O37  1  0.03077600  0.67657200  0.07860800  1
  O  O38  1  0.47004000  0.67636200  0.57850000  1
  O  O39  1  0.47068300  0.17730600  0.07914000  1
