# generated using pymatgen
data_Li3Mn(BO3)2
_symmetry_space_group_name_H-M   'P 1'
_cell_length_a   7.85585829
_cell_length_b   6.03952000
_cell_length_c   10.55193512
_cell_angle_alpha   68.95371452
_cell_angle_beta   90.00000000
_cell_angle_gamma   90.00000000
_symmetry_Int_Tables_number   1
_chemical_formula_structural   Li3Mn(BO3)2
_chemical_formula_sum   'Li12 Mn4 B8 O24'
_cell_volume   467.24544694
_cell_formula_units_Z   4
loop_
 _symmetry_equiv_pos_site_id
 _symmetry_equiv_pos_as_xyz
  1  'x, y, z'
loop_
 _atom_site_type_symbol
 _atom_site_label
 _atom_site_symmetry_multiplicity
 _atom_site_fract_x
 _atom_site_fract_y
 _atom_site_fract_z
 _atom_site_occupancy
  Li  Li0  1  0.19619644  0.75634310  0.64827796  1
  Li  Li1  1  0.71681166  0.70035684  0.82821544  1
  Li  Li2  1  0.03595756  0.40662100  0.91025555  1
  Li  Li3  1  0.53595756  0.59337900  0.58974445  1
  Li  Li4  1  0.21681166  0.29964316  0.67178456  1
  Li  Li5  1  0.69619644  0.24365690  0.85172204  1
  Li  Li6  1  0.30380356  0.75634310  0.14827796  1
  Li  Li7  1  0.78318834  0.70035684  0.32821544  1
  Li  Li8  1  0.46404244  0.40662100  0.41025555  1
  Li  Li9  1  0.96404244  0.59337900  0.08974445  1
  Li  Li10  1  0.28318834  0.29964316  0.17178456  1
  Li  Li11  1  0.80380356  0.24365690  0.35172204  1
  Mn  Mn12  1  0.06986945  0.91861282  0.38120934  1
  Mn  Mn13  1  0.56986945  0.08138718  0.11879066  1
  Mn  Mn14  1  0.43013055  0.91861282  0.88120934  1
  Mn  Mn15  1  0.93013055  0.08138718  0.61879066  1
  B  B16  1  0.37737936  0.43735568  0.85847535  1
  B  B17  1  0.91055480  0.16059271  0.13264848  1
  B  B18  1  0.41055480  0.83940729  0.36735152  1
  B  B19  1  0.87737936  0.56264432  0.64152465  1
  B  B20  1  0.12262064  0.43735568  0.35847535  1
  B  B21  1  0.58944520  0.16059271  0.63264848  1
  B  B22  1  0.08944520  0.83940729  0.86735152  1
  B  B23  1  0.62262064  0.56264432  0.14152465  1
  O  O24  1  0.47108065  0.62837049  0.86070510  1
  O  O25  1  0.95307332  0.78760052  0.58165152  1
  O  O26  1  0.72655155  0.53644982  0.70549621  1
  O  O27  1  0.05876266  0.28066993  0.10239756  1
  O  O28  1  0.28921935  0.82498403  0.46657005  1
  O  O29  1  0.86735215  0.02130657  0.26642485  1
  O  O30  1  0.36735215  0.97869343  0.23357515  1
  O  O31  1  0.78921935  0.17501597  0.03342995  1
  O  O32  1  0.22655155  0.46355018  0.79450379  1
  O  O33  1  0.55876266  0.71933007  0.39760244  1
  O  O34  1  0.45307332  0.21239948  0.91834848  1
  O  O35  1  0.97108065  0.37162951  0.63929490  1
  O  O36  1  0.02891935  0.62837049  0.36070510  1
  O  O37  1  0.54692668  0.78760052  0.08165152  1
  O  O38  1  0.44123734  0.28066993  0.60239756  1
  O  O39  1  0.77344845  0.53644982  0.20549621  1
  O  O40  1  0.21078065  0.82498403  0.96657005  1
  O  O41  1  0.63264785  0.02130657  0.76642485  1
  O  O42  1  0.13264785  0.97869343  0.73357515  1
  O  O43  1  0.71078065  0.17501597  0.53342995  1
  O  O44  1  0.94123734  0.71933007  0.89760244  1
  O  O45  1  0.27344845  0.46355018  0.29450379  1
  O  O46  1  0.04692668  0.21239948  0.41834848  1
  O  O47  1  0.52891935  0.37162951  0.13929490  1
